
#======================================================================
# CRYSTAL DATA
#----------------------------------------------------------------------
data_VESTA_phase_1

_chemical_name_common                  'MnWO4'
_cell_length_a                         4.830000
_cell_length_b                         5.760300
_cell_length_c                         4.994000
_cell_angle_alpha                      90.000000
_cell_angle_beta                       91.139999
_cell_angle_gamma                      90.000000
_cell_volume                           138.916810
_space_group_name_H-M                 'P 1 2/c 1'
_space_group_IT_number                 13

loop_
_space_group_symop_operation_xyz
   'x, y, z'
   '-x, -y, -z'
   '-x, y, -z+1/2'
   'x, -y, z+1/2'

loop_
   _atom_site_label
   _atom_site_occupancy
   _atom_site_fract_x
   _atom_site_fract_y
   _atom_site_fract_z
   _atom_site_adp_type
   _atom_site_U_iso_or_equiv
   _atom_site_type_symbol
   Mn1        0.9000  0.500000     0.6853(13)   0.250000    Uiso  0.020000 Mn
   W1         1.3000  0.000000     0.1805(8)    0.250000    Uiso  0.020000 W
   O1         1.2000  0.2123(5)    0.1031(5)    0.9406(7)   Uiso  0.020000 O
   O2         1.2000  0.2539(5)    0.3755(4)    0.3943(7)   Uiso  0.020000 O
